Version 4
SHEET 1 880 680
WIRE 192 -448 16 -448
WIRE 192 -400 192 -448
WIRE -320 -352 -432 -352
WIRE -128 -352 -256 -352
WIRE 16 -320 16 -448
WIRE 192 -288 192 -320
WIRE -432 -256 -432 -352
WIRE -400 -256 -432 -256
WIRE -272 -256 -320 -256
WIRE -128 -256 -128 -352
WIRE -128 -256 -192 -256
WIRE -80 -256 -128 -256
WIRE 240 -224 112 -224
WIRE 240 -208 240 -224
WIRE -80 -192 -272 -192
WIRE -432 -160 -432 -256
WIRE -272 -144 -272 -192
WIRE -80 -128 -144 -128
WIRE -144 -96 -144 -128
WIRE 240 -96 240 -128
WIRE -272 -16 -272 -64
WIRE -144 16 -144 -16
WIRE 240 16 240 -32
WIRE -48 32 -48 -16
WIRE 80 64 80 -16
WIRE -48 160 -48 112
FLAG 80 64 0
FLAG 240 16 0
FLAG -272 -16 0
FLAG -432 -160 0
FLAG 192 -288 0
FLAG -144 16 0
FLAG -48 160 0
SYMBOL cap 256 -32 R180
WINDOW 0 24 56 Left 2
WINDOW 3 24 8 Left 2
SYMATTR InstName C1
SYMATTR Value 470µ
SYMATTR SpiceLine V=25 Irms=0 Rser=0.0105 Lser=800p mfg="Würth Elektronik" pn="885012106031 WCAP-CSGP 0603" type="X5R"
SYMBOL ind -288 -240 R270
WINDOW 0 32 56 VTop 2
WINDOW 3 5 56 VBottom 2
SYMATTR InstName L1
SYMATTR Value 10µ
SYMBOL res -304 -272 R90
WINDOW 0 0 56 VBottom 2
WINDOW 3 32 56 VTop 2
SYMATTR InstName R1
SYMATTR Value 100
SYMBOL diode -320 -336 R270
WINDOW 0 32 32 VTop 2
WINDOW 3 0 32 VBottom 2
SYMATTR InstName D1
SYMATTR Value 1N4148
SYMBOL voltage -272 -160 R0
WINDOW 3 24 44 Left 2
WINDOW 123 0 0 Left 0
WINDOW 39 0 0 Left 0
SYMATTR InstName V1
SYMATTR Value 22
SYMBOL Switches\\ADG1236 16 -176 R0
SYMATTR InstName U1
SYMBOL res 224 -224 R0
SYMATTR InstName R2
SYMATTR Value 1k
SYMBOL voltage -144 -112 R0
WINDOW 3 -106 164 Left 2
WINDOW 123 0 0 Left 0
WINDOW 39 0 0 Left 0
SYMATTR InstName V2
SYMATTR Value PULSE(0 3.3 0 1u 1u 2m 4m)
SYMBOL voltage 192 -416 R0
WINDOW 123 0 0 Left 0
WINDOW 39 0 0 Left 0
SYMATTR InstName V3
SYMATTR Value 15
SYMBOL voltage -48 16 R0
WINDOW 123 0 0 Left 0
WINDOW 39 0 0 Left 0
SYMATTR InstName V4
SYMATTR Value -15
TEXT -4 296 Left 2 !.tran 0 300m 0 startup
